[General]
network = TSN_multipath
sim-time-limit = 2ms

# disable automatic MAC forwarding table configuration
*.macForwardingTableConfigurator.typename = ""

# enable frame replication and elimination
*.*.hasStreamRedundancy = true

# enable stream policing in layer 2
*.*.bridging.streamRelay.typename = "StreamRelayLayer"
*.*.bridging.streamCoder.typename = "StreamCoderLayer"

# enable automatic stream redundancy configurator
*.streamRedundancyConfigurator.typename = "StreamRedundancyConfigurator"

# visualizer
*.visualizer.streamRedundancyConfigurationVisualizer.displayTrees = true
*.visualizer.streamRedundancyConfigurationVisualizer.lineColor = "black"

*.host0.eth[0].bitrate = 100Mbps
*.switch0.eth[0].bitrate = 100Mbps
*.switch0.eth[1].bitrate = 10Mbps
*.switch0.eth[2].bitrate = 10Mbps
*.switch0.eth[3].bitrate = 10Mbps
*.switch0.eth[4].bitrate = 10Mbps
*.switch0.eth[5].bitrate = 10Mbps
*.host1.eth[0].bitrate = 100Mbps
*.switch1.eth[0].bitrate = 100Mbps
*.switch1.eth[1].bitrate = 10Mbps
*.switch1.eth[2].bitrate = 10Mbps
*.switch1.eth[3].bitrate = 10Mbps
*.switch1.eth[4].bitrate = 10Mbps
*.switch1.eth[5].bitrate = 10Mbps
*.switch1.eth[6].bitrate = 10Mbps
*.host2.eth[0].bitrate = 100Mbps
*.switch2.eth[0].bitrate = 100Mbps
*.switch2.eth[1].bitrate = 10Mbps
*.switch2.eth[2].bitrate = 10Mbps
*.switch2.eth[3].bitrate = 10Mbps
*.switch2.eth[4].bitrate = 10Mbps
*.host3.eth[0].bitrate = 100Mbps
*.switch3.eth[0].bitrate = 100Mbps
*.switch3.eth[1].bitrate = 10Mbps
*.switch3.eth[2].bitrate = 10Mbps
*.switch3.eth[3].bitrate = 10Mbps
*.switch3.eth[4].bitrate = 10Mbps
*.host4.eth[0].bitrate = 100Mbps
*.switch4.eth[0].bitrate = 100Mbps
*.switch4.eth[1].bitrate = 10Mbps
*.switch4.eth[2].bitrate = 10Mbps
*.switch4.eth[3].bitrate = 10Mbps
# apps
*.host0.numApps = 8

*.host0.app[0].typename = "UdpSourceApp"
*.host0.app[0].destAddresses = "host2"
*.host0.app[0].source.packetNameFormat = "%M-%m-%c"
*.host0.app[0].source.displayStringTextFormat = "sent %p pk (%l)"
*.host0.app[0].source.packetLength = 350B
*.host0.app[0].source.productionInterval = 100us
*.host0.app[0].display-name = "type1_0"
*.host0.app[0].io.destPort = 1000

*.host0.app[1].typename = "UdpBasicApp"
*.host0.app[1].destAddresses = "host2"
*.host0.app[1].source.packetNameFormat = "%M-%m-%c"
*.host0.app[1].source.displayStringTextFormat = "sent %p pk (%l)"
*.host0.app[1].messageLength = 100B
*.host0.app[1].sendInterval = 100us
*.host0.app[1].startTime = 0us
*.host0.app[1].stopTime = 200us
*.host0.app[1].display-name = "type2_0"
*.host0.app[1].destPort = 1002

*.host0.app[2].typename = "UdpBasicApp"
*.host0.app[2].destAddresses = "host2"
*.host0.app[2].source.packetNameFormat = "%M-%m-%c"
*.host0.app[2].source.displayStringTextFormat = "sent %p pk (%l)"
*.host0.app[2].messageLength = 100B
*.host0.app[2].sendInterval = 100us
*.host0.app[2].startTime = 300us
*.host0.app[2].stopTime = 400us
*.host0.app[2].display-name = "type2_0"
*.host0.app[2].destPort = 1002

*.host0.app[3].typename = "UdpBasicApp"
*.host0.app[3].destAddresses = "host2"
*.host0.app[3].source.packetNameFormat = "%M-%m-%c"
*.host0.app[3].source.displayStringTextFormat = "sent %p pk (%l)"
*.host0.app[3].messageLength = 100B
*.host0.app[3].sendInterval = 100us
*.host0.app[3].startTime = 600us
*.host0.app[3].stopTime = 800us
*.host0.app[3].display-name = "type2_0"
*.host0.app[3].destPort = 1002

*.host0.app[4].typename = "UdpBasicApp"
*.host0.app[4].destAddresses = "host2"
*.host0.app[4].source.packetNameFormat = "%M-%m-%c"
*.host0.app[4].source.displayStringTextFormat = "sent %p pk (%l)"
*.host0.app[4].messageLength = 100B
*.host0.app[4].sendInterval = 100us
*.host0.app[4].startTime = 1100us
*.host0.app[4].stopTime = 1200us
*.host0.app[4].display-name = "type2_0"
*.host0.app[4].destPort = 1002

*.host0.app[5].typename = "UdpBasicApp"
*.host0.app[5].destAddresses = "host2"
*.host0.app[5].source.packetNameFormat = "%M-%m-%c"
*.host0.app[5].source.displayStringTextFormat = "sent %p pk (%l)"
*.host0.app[5].messageLength = 100B
*.host0.app[5].sendInterval = 100us
*.host0.app[5].startTime = 1300us
*.host0.app[5].stopTime = 1700us
*.host0.app[5].display-name = "type2_0"
*.host0.app[5].destPort = 1002

*.host0.app[6].typename = "UdpBasicApp"
*.host0.app[6].destAddresses = "host2"
*.host0.app[6].source.packetNameFormat = "%M-%m-%c"
*.host0.app[6].source.displayStringTextFormat = "sent %p pk (%l)"
*.host0.app[6].messageLength = 100B
*.host0.app[6].sendInterval = 100us
*.host0.app[6].startTime = 1800us
*.host0.app[6].stopTime = 1900us
*.host0.app[6].display-name = "type2_0"
*.host0.app[6].destPort = 1002

*.host0.app[7].typename = "UdpSinkApp"
*.host0.app[7].io.localPort = 1000

*.host1.numApps = 1

*.host1.app[0].typename = "UdpSinkApp"
*.host1.app[0].io.localPort = 1000

*.host2.numApps = 7

*.host2.app[0].typename = "UdpSinkApp"
*.host2.app[0].io.localPort = 1000

*.host2.app[1].typename = "UdpSinkApp"
*.host2.app[1].io.localPort = 1001

*.host2.app[2].typename = "UdpSinkApp"
*.host2.app[2].io.localPort = 1002

*.host2.app[3].typename = "UdpBasicApp"
*.host2.app[3].destAddresses = "host0"
*.host2.app[3].source.packetNameFormat = "%M-%m-%c"
*.host2.app[3].source.displayStringTextFormat = "sent %p pk (%l)"
*.host2.app[3].messageLength = 150B
*.host2.app[3].sendInterval = 100us
*.host2.app[3].startTime = 200us
*.host2.app[3].stopTime = 1100us
*.host2.app[3].display-name = "type2_1"
*.host2.app[3].destPort = 1000

*.host2.app[4].typename = "UdpBasicApp"
*.host2.app[4].destAddresses = "host0"
*.host2.app[4].source.packetNameFormat = "%M-%m-%c"
*.host2.app[4].source.displayStringTextFormat = "sent %p pk (%l)"
*.host2.app[4].messageLength = 150B
*.host2.app[4].sendInterval = 100us
*.host2.app[4].startTime = 1500us
*.host2.app[4].stopTime = 1600us
*.host2.app[4].display-name = "type2_1"
*.host2.app[4].destPort = 1000

*.host2.app[5].typename = "UdpBasicApp"
*.host2.app[5].destAddresses = "host0"
*.host2.app[5].source.packetNameFormat = "%M-%m-%c"
*.host2.app[5].source.displayStringTextFormat = "sent %p pk (%l)"
*.host2.app[5].messageLength = 150B
*.host2.app[5].sendInterval = 100us
*.host2.app[5].startTime = 1700us
*.host2.app[5].stopTime = 2000us
*.host2.app[5].display-name = "type2_1"
*.host2.app[5].destPort = 1000

*.host2.app[6].typename = "UdpSinkApp"
*.host2.app[6].io.localPort = 1003

*.host3.numApps = 9

*.host3.app[0].typename = "UdpBasicApp"
*.host3.app[0].destAddresses = "host1"
*.host3.app[0].source.packetNameFormat = "%M-%m-%c"
*.host3.app[0].source.displayStringTextFormat = "sent %p pk (%l)"
*.host3.app[0].messageLength = 150B
*.host3.app[0].sendInterval = 100us
*.host3.app[0].startTime = 300us
*.host3.app[0].stopTime = 500us
*.host3.app[0].display-name = "type2_2"
*.host3.app[0].destPort = 1000

*.host3.app[1].typename = "UdpBasicApp"
*.host3.app[1].destAddresses = "host1"
*.host3.app[1].source.packetNameFormat = "%M-%m-%c"
*.host3.app[1].source.displayStringTextFormat = "sent %p pk (%l)"
*.host3.app[1].messageLength = 150B
*.host3.app[1].sendInterval = 100us
*.host3.app[1].startTime = 700us
*.host3.app[1].stopTime = 800us
*.host3.app[1].display-name = "type2_2"
*.host3.app[1].destPort = 1000

*.host3.app[2].typename = "UdpBasicApp"
*.host3.app[2].destAddresses = "host1"
*.host3.app[2].source.packetNameFormat = "%M-%m-%c"
*.host3.app[2].source.displayStringTextFormat = "sent %p pk (%l)"
*.host3.app[2].messageLength = 150B
*.host3.app[2].sendInterval = 100us
*.host3.app[2].startTime = 1800us
*.host3.app[2].stopTime = 1900us
*.host3.app[2].display-name = "type2_2"
*.host3.app[2].destPort = 1000

*.host3.app[3].typename = "UdpBasicApp"
*.host3.app[3].destAddresses = "host2"
*.host3.app[3].source.packetNameFormat = "%M-%m-%c"
*.host3.app[3].source.displayStringTextFormat = "sent %p pk (%l)"
*.host3.app[3].messageLength = 150B
*.host3.app[3].sendInterval = 100us
*.host3.app[3].startTime = 200us
*.host3.app[3].stopTime = 1200us
*.host3.app[3].display-name = "type2_3"
*.host3.app[3].destPort = 1003

*.host3.app[4].typename = "UdpBasicApp"
*.host3.app[4].destAddresses = "host2"
*.host3.app[4].source.packetNameFormat = "%M-%m-%c"
*.host3.app[4].source.displayStringTextFormat = "sent %p pk (%l)"
*.host3.app[4].messageLength = 150B
*.host3.app[4].sendInterval = 100us
*.host3.app[4].startTime = 1400us
*.host3.app[4].stopTime = 1700us
*.host3.app[4].display-name = "type2_3"
*.host3.app[4].destPort = 1003

*.host3.app[5].typename = "UdpBasicApp"
*.host3.app[5].destAddresses = "host4"
*.host3.app[5].source.packetNameFormat = "%M-%m-%c"
*.host3.app[5].source.displayStringTextFormat = "sent %p pk (%l)"
*.host3.app[5].messageLength = 50B
*.host3.app[5].sendInterval = 100us
*.host3.app[5].startTime = 0us
*.host3.app[5].stopTime = 500us
*.host3.app[5].display-name = "type2_4"
*.host3.app[5].destPort = 1000

*.host3.app[6].typename = "UdpBasicApp"
*.host3.app[6].destAddresses = "host4"
*.host3.app[6].source.packetNameFormat = "%M-%m-%c"
*.host3.app[6].source.displayStringTextFormat = "sent %p pk (%l)"
*.host3.app[6].messageLength = 50B
*.host3.app[6].sendInterval = 100us
*.host3.app[6].startTime = 600us
*.host3.app[6].stopTime = 800us
*.host3.app[6].display-name = "type2_4"
*.host3.app[6].destPort = 1000

*.host3.app[7].typename = "UdpBasicApp"
*.host3.app[7].destAddresses = "host4"
*.host3.app[7].source.packetNameFormat = "%M-%m-%c"
*.host3.app[7].source.displayStringTextFormat = "sent %p pk (%l)"
*.host3.app[7].messageLength = 50B
*.host3.app[7].sendInterval = 100us
*.host3.app[7].startTime = 1000us
*.host3.app[7].stopTime = 1100us
*.host3.app[7].display-name = "type2_4"
*.host3.app[7].destPort = 1000

*.host3.app[8].typename = "UdpBasicApp"
*.host3.app[8].destAddresses = "host4"
*.host3.app[8].source.packetNameFormat = "%M-%m-%c"
*.host3.app[8].source.displayStringTextFormat = "sent %p pk (%l)"
*.host3.app[8].messageLength = 50B
*.host3.app[8].sendInterval = 100us
*.host3.app[8].startTime = 1200us
*.host3.app[8].stopTime = 2000us
*.host3.app[8].display-name = "type2_4"
*.host3.app[8].destPort = 1000

*.host4.numApps = 2

*.host4.app[0].typename = "UdpSourceApp"
*.host4.app[0].destAddresses = "host2"
*.host4.app[0].source.packetNameFormat = "%M-%m-%c"
*.host4.app[0].source.displayStringTextFormat = "sent %p pk (%l)"
*.host4.app[0].source.packetLength = 50B
*.host4.app[0].source.productionInterval = 100us
*.host4.app[0].display-name = "type1_1"
*.host4.app[0].io.destPort = 1001

*.host4.app[1].typename = "UdpSinkApp"
*.host4.app[1].io.localPort = 1000

# seamless stream redundancy configuration
*.streamRedundancyConfigurator.configuration = [
	{name: "S1-0", packetFilter: "*-type1_0-*", source: "host0", destination: "host2",trees: [[["host0", "switch0", "switch2", "host2"]]]},
	{name: "S1-1", packetFilter: "*-type1_1-*", source: "host4", destination: "host2",trees: [[["host4", "switch4", "switch3", "switch2", "host2"]]]},
	{name: "S2-0", packetFilter: "*-type2_0-*", source: "host0", destination: "host2",trees: [[["host0", "switch0", "switch4", "switch3","switch2" ,"host2"]]]},
	{name: "S2-1", packetFilter: "*-type2_1-*", source: "host2", destination: "host0",trees: [[["host2", "switch2", "switch1","switch0" ,"host0"]]]},
	{name: "S2-2", packetFilter: "*-type2_2-*", source: "host3", destination: "host1",trees: [[["host3", "switch3", "switch2","switch1" ,"host1"]]]},
	{name: "S2-3", packetFilter: "*-type2_3-*", source: "host3", destination: "host2",trees: [[["host3", "switch3","switch2" ,"host2"]]]},
	{name: "S2-4", packetFilter: "*-type2_4-*", source: "host3", destination: "host4",trees: [[["host3", "switch3", "switch2", "switch1", "switch0","switch4" ,"host4"]]]}]
